Version 4
SHEET 1 1368 680
WIRE -576 -112 -688 -112
WIRE -304 -112 -512 -112
WIRE 576 -112 -304 -112
WIRE 784 -112 576 -112
WIRE 576 -64 576 -112
WIRE 784 0 784 -112
WIRE -304 48 -304 -112
WIRE 576 48 576 16
WIRE 576 48 464 48
WIRE 80 80 -80 80
WIRE 208 80 160 80
WIRE 464 80 464 48
WIRE 464 80 400 80
WIRE 576 80 576 48
WIRE 656 80 576 80
WIRE 736 80 656 80
WIRE -80 128 -80 80
WIRE 576 128 576 80
WIRE 656 128 656 80
WIRE -688 144 -688 -112
WIRE 448 144 400 144
WIRE 208 176 128 176
WIRE -688 256 -688 224
WIRE -304 256 -304 112
WIRE -304 256 -688 256
WIRE -80 256 -80 208
WIRE -80 256 -304 256
WIRE 128 256 128 176
WIRE 128 256 -80 256
WIRE 448 256 448 144
WIRE 448 256 128 256
WIRE 576 256 576 192
WIRE 576 256 448 256
WIRE 656 256 656 192
WIRE 656 256 576 256
WIRE 784 256 784 96
WIRE 784 256 656 256
WIRE -688 288 -688 256
FLAG -688 288 0
SYMBOL voltage -688 128 R0
WINDOW 123 0 0 Left 0
WINDOW 39 0 0 Left 0
SYMATTR InstName V1
SYMATTR Value EXP(0 300 0 .1 1)
SYMBOL diode -576 -96 R270
WINDOW 0 32 32 VTop 2
WINDOW 3 0 32 VBottom 2
SYMATTR InstName D1
SYMBOL cap -320 48 R0
SYMATTR InstName C1
SYMATTR Value 2µF
SYMBOL nmos 736 0 R0
SYMATTR InstName M1
SYMATTR Value R6020PNJ
SYMBOL res 560 -80 R0
SYMATTR InstName R1
SYMATTR Value 2200000
SYMBOL zener 592 192 R180
WINDOW 0 24 64 Left 2
WINDOW 3 24 0 Left 2
SYMATTR InstName D2
SYMATTR Value PTZ6_2B
SYMATTR Description Diode
SYMATTR Type diode
SYMBOL Optos\\MOC207 304 144 R0
SYMATTR InstName U1
SYMBOL res 176 64 R90
WINDOW 0 0 56 VBottom 2
WINDOW 3 32 56 VTop 2
SYMATTR InstName R2
SYMATTR Value 220
SYMBOL voltage -80 112 R0
WINDOW 123 0 0 Left 0
WINDOW 39 0 0 Left 0
SYMATTR InstName V2
SYMATTR Value PULSE(5 0 1)
SYMBOL cap 640 128 R0
SYMATTR InstName C2
SYMATTR Value 0.1µF
TEXT -722 312 Left 2 !.tran 2
