Version 4
SHEET 1 880 680
WIRE 176 64 112 64
WIRE 592 64 256 64
WIRE 592 112 592 64
WIRE 112 128 112 64
WIRE 112 240 112 208
WIRE 592 240 592 176
WIRE 592 240 112 240
WIRE 112 288 112 240
FLAG 112 288 0
SYMBOL voltage 112 112 R0
WINDOW 123 0 0 Left 0
WINDOW 39 0 0 Left 0
SYMATTR InstName V1
SYMATTR Value PULSE(0 3.3 0 2nS 2nS 1mS 1mS 1)
SYMBOL res 272 48 R90
WINDOW 0 0 56 VBottom 2
WINDOW 3 32 56 VTop 2
SYMATTR InstName R1
SYMATTR Value 2K
SYMBOL cap 576 112 R0
SYMATTR InstName C1
SYMATTR Value 0.1µF
TEXT 78 312 Left 2 !.tran 2mS
